Version 4
SHEET 1 2712 1528
WIRE 2608 -32 2512 -32
WIRE 1008 0 912 0
WIRE 2128 32 1664 32
WIRE 2240 32 2128 32
WIRE 528 64 64 64
WIRE 640 64 528 64
WIRE 2512 64 2512 -32
WIRE 912 96 912 0
WIRE 2608 96 2608 48
WIRE 1008 128 1008 80
WIRE 2240 128 2240 32
WIRE 1664 144 1664 32
WIRE 1808 144 1664 144
WIRE 640 160 640 64
WIRE 2512 176 2512 144
WIRE 2656 176 2512 176
WIRE 2512 192 2512 176
WIRE 912 208 912 176
WIRE 1056 208 912 208
WIRE 912 224 912 208
WIRE 2128 240 2128 32
WIRE 2448 240 2416 240
WIRE 1808 256 1808 144
WIRE 1808 256 1760 256
WIRE 528 272 528 64
WIRE 848 272 816 272
WIRE 1664 272 1664 144
WIRE 1696 272 1664 272
WIRE 2240 272 2240 208
WIRE 2416 272 2416 240
WIRE 2416 272 2240 272
WIRE 208 288 160 288
WIRE 1792 288 1760 288
WIRE 64 304 64 64
WIRE 96 304 64 304
WIRE 640 304 640 240
WIRE 816 304 816 272
WIRE 816 304 640 304
WIRE 192 320 160 320
WIRE 2240 336 2240 272
WIRE 2256 336 2240 336
WIRE 2416 336 2416 272
WIRE 640 368 640 304
WIRE 656 368 640 368
WIRE 816 368 816 304
WIRE 1792 368 1792 288
WIRE 1792 368 1728 368
WIRE 192 400 192 320
WIRE 192 400 128 400
WIRE 1728 400 1728 368
WIRE 128 432 128 400
WIRE 1808 496 1808 256
WIRE 1888 496 1808 496
WIRE 2128 496 2128 304
WIRE 2128 496 1888 496
WIRE 2256 496 2256 416
WIRE 2256 496 2128 496
WIRE 2416 496 2416 400
WIRE 2416 496 2256 496
WIRE 2512 496 2512 288
WIRE 2512 496 2416 496
WIRE 208 528 208 288
WIRE 288 528 208 528
WIRE 528 528 528 336
WIRE 528 528 288 528
WIRE 656 528 656 448
WIRE 656 528 528 528
WIRE 816 528 816 432
WIRE 816 528 656 528
WIRE 912 528 912 320
WIRE 912 528 816 528
WIRE 1728 544 1728 480
WIRE 1888 544 1888 496
WIRE 128 576 128 512
WIRE 288 576 288 528
WIRE 1648 912 1552 912
WIRE 1168 976 704 976
WIRE 1280 976 1168 976
WIRE 1552 1008 1552 912
WIRE 1648 1040 1648 992
WIRE 704 1056 704 976
WIRE 1280 1072 1280 976
WIRE 1552 1120 1552 1088
WIRE 1696 1120 1552 1120
WIRE 1552 1136 1552 1120
WIRE 1168 1184 1168 976
WIRE 1488 1184 1456 1184
WIRE 848 1200 800 1200
WIRE 704 1216 704 1136
WIRE 736 1216 704 1216
WIRE 1280 1216 1280 1152
WIRE 1456 1216 1456 1184
WIRE 1456 1216 1280 1216
WIRE 832 1232 800 1232
WIRE 1280 1280 1280 1216
WIRE 1296 1280 1280 1280
WIRE 1456 1280 1456 1216
WIRE 832 1312 832 1232
WIRE 832 1312 768 1312
WIRE 768 1344 768 1312
WIRE 848 1440 848 1200
WIRE 928 1440 848 1440
WIRE 1168 1440 1168 1248
WIRE 1168 1440 928 1440
WIRE 1296 1440 1296 1360
WIRE 1296 1440 1168 1440
WIRE 1456 1440 1456 1344
WIRE 1456 1440 1296 1440
WIRE 1552 1440 1552 1232
WIRE 1552 1440 1456 1440
WIRE 768 1488 768 1424
WIRE 928 1488 928 1440
FLAG 1008 128 0
FLAG 288 576 0
FLAG 128 576 0
FLAG 2608 96 0
FLAG 1888 544 0
FLAG 1728 544 0
FLAG 1648 1040 0
FLAG 928 1488 0
FLAG 768 1488 0
SYMBOL diode 544 336 R180
WINDOW 0 24 64 Left 2
WINDOW 3 24 0 Left 2
SYMATTR InstName D1
SYMBOL res 624 144 R0
SYMATTR InstName R1
SYMATTR Value 39000
SYMBOL res 640 352 R0
SYMATTR InstName R2
SYMATTR Value 1500
SYMBOL zener 832 432 R180
WINDOW 0 24 64 Left 2
WINDOW 3 24 0 Left 2
SYMATTR InstName D2
SYMBOL npn 848 224 R0
SYMATTR InstName Q1
SYMBOL res 896 80 R0
SYMATTR InstName R3
SYMATTR Value 470000
SYMBOL voltage 1008 -16 R0
WINDOW 123 0 0 Left 0
WINDOW 39 0 0 Left 0
SYMATTR InstName V1
SYMATTR Value 5
SYMBOL AutoGenerated\\SEP300W 128 304 R0
SYMATTR InstName U1
SYMBOL voltage 128 416 R0
WINDOW 123 0 0 Left 0
WINDOW 39 0 0 Left 0
SYMATTR InstName V2
SYMATTR Value 44
SYMBOL diode 2144 304 R180
WINDOW 0 24 64 Left 2
WINDOW 3 24 0 Left 2
SYMATTR InstName D3
SYMBOL res 2224 112 R0
SYMATTR InstName R4
SYMATTR Value 39000
SYMBOL res 2240 320 R0
SYMATTR InstName R5
SYMATTR Value 1500
SYMBOL zener 2432 400 R180
WINDOW 0 24 64 Left 2
WINDOW 3 24 0 Left 2
SYMATTR InstName D4
SYMBOL npn 2448 192 R0
SYMATTR InstName Q2
SYMBOL res 2496 48 R0
SYMATTR InstName R6
SYMATTR Value 470000
SYMBOL voltage 2608 -48 R0
WINDOW 123 0 0 Left 0
WINDOW 39 0 0 Left 0
SYMATTR InstName V3
SYMATTR Value 5
SYMBOL AutoGenerated\\SEP300W 1728 272 R0
SYMATTR InstName U2
SYMBOL voltage 1728 384 R0
WINDOW 123 0 0 Left 0
WINDOW 39 0 0 Left 0
SYMATTR InstName V4
SYMATTR Value 44
SYMBOL diode 1184 1248 R180
WINDOW 0 24 64 Left 2
WINDOW 3 24 0 Left 2
SYMATTR InstName D5
SYMBOL res 1264 1056 R0
SYMATTR InstName R7
SYMATTR Value 39000
SYMBOL res 1280 1264 R0
SYMATTR InstName R8
SYMATTR Value 1500
SYMBOL zener 1472 1344 R180
WINDOW 0 24 64 Left 2
WINDOW 3 24 0 Left 2
SYMATTR InstName D6
SYMBOL npn 1488 1136 R0
SYMATTR InstName Q3
SYMBOL res 1536 992 R0
SYMATTR InstName R9
SYMATTR Value 470000
SYMBOL voltage 1648 896 R0
WINDOW 123 0 0 Left 0
WINDOW 39 0 0 Left 0
SYMATTR InstName V5
SYMATTR Value 5
SYMBOL AutoGenerated\\SEP300W 768 1216 R0
SYMATTR InstName U3
SYMBOL voltage 768 1328 R0
WINDOW 123 0 0 Left 0
WINDOW 39 0 0 Left 0
SYMATTR InstName V6
SYMATTR Value 44
TEXT 176 600 Left 2 !;tran 20
TEXT 64 288 Left 2 ;V+
TEXT 168 272 Left 2 ;V-
TEXT 1080 208 Left 2 ;Vc
TEXT 1776 568 Left 2 !;tran 20
TEXT 1664 256 Left 2 ;V+
TEXT 1768 240 Left 2 ;V-
TEXT 2680 176 Left 2 ;Vc
TEXT 816 1512 Left 2 !;tran 20
TEXT 704 1200 Left 2 ;V+
TEXT 808 1184 Left 2 ;V-
TEXT 1720 1120 Left 2 ;Vc
TEXT 336 -104 Left 2 ;FDEC (NORMAL)
TEXT 1968 -144 Left 2 ;FDEC (SC-FAULT)
TEXT 984 888 Left 2 ;FDEC (OC-FAULT)
